LTspice 24.1.9 for Windows
Circuit: C:\UP\Study\CMOS Diff Amp\DifferentialAmplifier.net
Start Time: Fri Jul  4 17:27:06 2025
Ignoring BSIM parameter XL
Ignoring BSIM parameter XW
Ignoring BSIM parameter XL
Ignoring BSIM parameter XW
solver = Normal
Maximum thread count: 16
tnom = 27
temp = 27
method = trap
WARNING: Node n009 is floating.
WARNING: Node n010 is floating.
WARNING: Node n003 is floating.
WARNING: Node n004 is floating.

Warning: Pd = 0 is less than W.
Warning: Ps = 0 is less than W.
Warning: Pd = 0 is less than W.
Warning: Ps = 0 is less than W.
Warning: Pd = 0 is less than W.
Warning: Ps = 0 is less than W.
Direct Newton iteration for .op point succeeded.
Total elapsed time: 0.363 seconds.

Files loaded:
C:\UP\Study\CMOS Diff Amp\DifferentialAmplifier.net
C:\Users\asus\AppData\Local\LTspice\lib\cmp\standard.mos
C:\Users\asus\Documents\LTspice\lib\sub\tsmc018.lib

